<?xml version="1.0" encoding="UTF-8"?>

<!-- generated on 2026-02-27 15:14:09 by Eclipse SUMO sumo Version 1.24.0
-->

<sumoConfiguration xmlns:xsi="http://www.w3.org/2001/XMLSchema-instance" xsi:noNamespaceSchemaLocation="http://sumo.dlr.de/xsd/sumoConfiguration.xsd">

    <input>
        <net-file value="New_Network.net.xml"/>
        <route-files value="New_Network.rou.xml"/>
        <additional-files value="New_Network.add.xml"/>
    </input>

</sumoConfiguration>
